Version 4
SHEET 1 2400 680
WIRE -224 -208 -304 -208
WIRE -304 -176 -304 -208
WIRE -224 -176 -224 -208
WIRE 128 -128 16 -128
WIRE 288 -128 208 -128
WIRE 288 -80 288 -128
WIRE 16 -48 16 -128
WIRE 80 -48 16 -48
WIRE -304 0 -304 -96
WIRE -336 16 -384 16
WIRE 32 32 -272 32
WIRE -336 48 -496 48
WIRE 80 48 16 48
WIRE -384 128 -384 16
WIRE 16 128 16 48
WIRE 16 128 -384 128
WIRE -496 160 -496 128
WIRE 16 160 16 128
WIRE -304 176 -304 64
WIRE -304 288 -304 256
WIRE 16 288 16 240
WIRE 16 400 16 368
FLAG -304 288 0
FLAG -224 -176 0
FLAG 288 -80 0
FLAG 16 400 0
FLAG -496 160 0
SYMBOL OpAmps\\LT1028 -304 -32 R0
SYMATTR InstName U1
SYMBOL voltage -304 160 R0
WINDOW 123 0 0 Left 0
WINDOW 39 0 0 Left 0
SYMATTR InstName V1
SYMATTR Value -15
SYMBOL voltage -304 -80 R180
WINDOW 0 24 96 Left 2
WINDOW 3 24 16 Left 2
WINDOW 123 0 0 Left 0
WINDOW 39 0 0 Left 0
SYMATTR InstName V2
SYMATTR Value 15
SYMBOL res 0 144 R0
SYMATTR InstName R1
SYMATTR Value 2.5
SYMBOL res 224 -144 R90
WINDOW 0 0 56 VBottom 2
WINDOW 3 32 56 VTop 2
SYMATTR InstName R2
SYMATTR Value {R}
SYMBOL voltage 16 272 R0
WINDOW 0 24 96 Left 2
WINDOW 3 24 16 Left 2
WINDOW 123 0 0 Left 0
WINDOW 39 0 0 Left 0
SYMATTR InstName V3
SYMATTR Value 15
SYMBOL voltage -496 32 R0
WINDOW 0 24 96 Left 2
WINDOW 3 24 16 Left 2
WINDOW 123 0 0 Left 0
WINDOW 39 0 0 Left 0
SYMATTR InstName V4
SYMATTR Value 5
SYMBOL pmos 32 -48 R0
SYMATTR InstName M1
SYMATTR Value FDC5614P
TEXT 256 168 Left 2 !.lib standard.mos.XVII.txt
TEXT -528 424 Left 2 !;tran 0 1 0
TEXT 256 136 Left 1 ;.MODEL VP0106 PMOS (LEVEL=3 RS=0.43 NSUB=5.0E14 KAPPA=0.0411 TPG=-1 CGDO=2.6106E-11 RD=4.23 VTO=-2.850 VMAX=3.0E6 ETA=0.12098 NFS=3.384E11 TOX=1.10E-7 LD=1.1400E-9 UO=865.45 XJ=6.5E-7 THETA=4.063E-5 CGSO=4.2666E-11 L=2.5E-6 W=0.9E-2)
TEXT 152 -216 Left 2 !.step param R 0.1 10 0.1
TEXT 264 208 Left 2 !.op
