Version 4
SHEET 1 880 680
WIRE 656 -112 576 -112
WIRE 784 -112 736 -112
WIRE 784 -80 784 -112
WIRE -48 0 -288 0
WIRE 112 0 -48 0
WIRE 432 0 112 0
WIRE 768 0 432 0
WIRE 224 16 224 -16
WIRE -288 64 -288 0
WIRE 432 80 432 64
WIRE 576 80 576 -112
WIRE -48 96 -48 0
WIRE 112 96 112 0
WIRE 224 128 224 96
WIRE 192 144 160 144
WIRE 304 160 256 160
WIRE 432 160 384 160
WIRE 528 160 432 160
WIRE -288 176 -288 128
WIRE -144 176 -288 176
WIRE -48 176 -48 160
WIRE -48 176 -64 176
WIRE 16 176 -48 176
WIRE 112 176 112 160
WIRE 112 176 96 176
WIRE 192 176 112 176
WIRE 224 224 224 192
WIRE 160 240 160 144
WIRE 576 240 576 176
WIRE 576 240 160 240
WIRE 640 240 576 240
WIRE 768 240 768 0
WIRE 768 240 720 240
WIRE 768 272 768 240
WIRE -288 320 -288 176
WIRE 224 320 224 304
WIRE 768 368 768 352
WIRE -400 400 -400 368
WIRE -288 432 -288 400
FLAG -288 432 0
FLAG 784 -80 0
FLAG 768 368 0
FLAG 224 320 0
FLAG 224 -16 0
FLAG -400 400 0
SYMBOL res 400 144 R90
WINDOW 0 0 56 VBottom 2
WINDOW 3 32 56 VTop 2
SYMATTR InstName R1
SYMATTR Value 10k
SYMBOL res 0 192 R270
WINDOW 0 32 56 VTop 2
WINDOW 3 0 56 VBottom 2
SYMATTR InstName R2
SYMATTR Value 3k
SYMBOL res -160 192 R270
WINDOW 0 32 56 VTop 2
WINDOW 3 0 56 VBottom 2
SYMATTR InstName R3
SYMATTR Value 3k
SYMBOL res -304 304 R0
SYMATTR InstName R6
SYMATTR Value 7.5k
SYMBOL res 416 64 R0
SYMATTR InstName R7
SYMATTR Value 100
SYMBOL res 736 224 R90
WINDOW 0 0 56 VBottom 2
WINDOW 3 32 56 VTop 2
SYMATTR InstName R8
SYMATTR Value 2
SYMBOL res 752 -128 R90
WINDOW 0 0 56 VBottom 2
WINDOW 3 32 56 VTop 2
SYMATTR InstName R9
SYMATTR Value 1
SYMBOL cap 96 96 R0
SYMATTR InstName C1
SYMATTR Value 22µ
SYMBOL cap -64 96 R0
SYMATTR InstName C2
SYMATTR Value 22µ
SYMBOL cap 416 0 R0
SYMATTR InstName C3
SYMATTR Value 27n
SYMBOL pmos 528 80 R0
SYMATTR InstName M1
SYMATTR Value IRF9Z24S_L
SYMBOL voltage 768 256 R0
WINDOW 123 0 0 Left 0
WINDOW 39 0 0 Left 0
SYMATTR InstName V1
SYMATTR Value 8
SYMBOL voltage 224 208 R0
WINDOW 123 0 0 Left 0
WINDOW 39 0 0 Left 0
SYMATTR InstName V2
SYMATTR Value -15
SYMBOL voltage 224 112 R180
WINDOW 0 24 96 Left 2
WINDOW 3 24 16 Left 2
WINDOW 123 0 0 Left 0
WINDOW 39 0 0 Left 0
SYMATTR InstName V3
SYMATTR Value +15
SYMBOL voltage -400 272 R0
WINDOW 123 0 0 Left 0
WINDOW 39 0 0 Left 0
SYMATTR InstName V4
SYMATTR Value 5
SYMBOL References\\LT1634-5 -288 96 R0
SYMATTR InstName U2
SYMBOL OpAmps\\AD8671 224 96 R0
SYMATTR InstName U1
TEXT -640 -320 Left 2 !;step param R 1 5000 100
TEXT -640 -296 Left 2 !;op
TEXT -672 456 Left 2 !.tran 0 100 0 5
