Version 4
SHEET 1 880 680
WIRE 208 -32 208 -80
WIRE 208 128 208 48
WIRE 176 144 80 144
WIRE 352 160 240 160
WIRE 512 160 432 160
WIRE 80 240 80 144
WIRE 560 240 560 176
WIRE 560 240 80 240
WIRE 208 256 208 192
WIRE 208 368 208 336
FLAG 208 -80 0
FLAG 208 368 0
SYMBOL OpAmps\\AD8671 208 96 R0
SYMATTR InstName U1
SYMBOL voltage 208 64 R180
WINDOW 0 24 96 Left 2
WINDOW 3 24 16 Left 2
WINDOW 123 0 0 Left 0
WINDOW 39 0 0 Left 0
SYMATTR InstName V1
SYMATTR Value 15
SYMBOL voltage 208 240 R0
WINDOW 123 0 0 Left 0
WINDOW 39 0 0 Left 0
SYMATTR InstName V2
SYMATTR Value -15
SYMBOL res 448 144 R90
WINDOW 0 0 56 VBottom 2
WINDOW 3 32 56 VTop 2
SYMATTR InstName R1
SYMBOL pmos 512 80 R0
SYMATTR InstName M1
SYMATTR Value IRF9Z24S_L
